22

C    -1.475325525962   -1.149961238157   -0.386814290466
C    -0.744621582902   -0.000388377979   -0.001087188809
C    -1.474204814506    1.149645226189    0.385467027263
C    -2.877664196258    1.150837667675    0.387004457929
C    -3.587449679781    0.000488719701    0.001461552204
C    -2.878763959358   -1.149912052598   -0.385965201585
H    -0.933194552690   -2.050327757638   -0.720035581400
H    -0.930465032220    2.049593641122    0.717068905415
H    -3.421888207158    2.057083626080    0.701500718361
H    -4.690058485865    0.000427143289    0.002982998558
H    -3.424435263355   -2.055525991525   -0.699757271686
C     0.744438760891   -0.000546288697   -0.001115359793
C     1.474799713336    1.149394813927   -0.386868233082
C     2.878283318057    1.150481088787   -0.386050406316
C     3.587525049368    0.000405071062    0.001279738555
C     2.878248053717   -1.150289217522    0.387034644486
C     1.474719595652   -1.150270110662    0.385336279908
H     0.931727443018    2.049440999721   -0.719528249277
H     3.423029286400    2.056677931328   -0.699665178196
H     4.690063352082    0.000896218994    0.002621323344
H     3.423363647792   -2.056024878760    0.701559082605
H     0.932039737506   -2.050874225291    0.717030279307
