22

C    -3.5084149   -3.0027749   -0.9047560 
C    -2.8130972   -3.6879067    0.1862528 
C    -2.3543139   -2.8258365    1.2770017 
C    -2.5690657   -1.4741126    1.2644257 
C    -3.2495202   -0.8476559    0.1867998 
C    -3.7098129   -1.6489843   -0.8915383 
H    -3.8753375   -3.5783804   -1.7463490 
H    -1.8298383   -3.2647863    2.1175166 
H    -2.2125894   -0.8682586    2.0936293 
H    -3.4146716    0.2249058    0.1872107 
H    -4.2315246   -1.1777975   -1.7207004 
C    -2.6019597   -5.0710816    0.1867191 
C    -1.9088039   -5.7565534    1.2788991 
C    -1.7077722   -7.1103982    1.2658817 
C    -2.1657467   -7.9113438    0.1862669 
C    -2.8437481   -7.2845177   -0.8926772 
C    -3.0586221   -5.9328095   -0.9052011 
H    -1.5443973   -5.1813050    2.1218268 
H    -1.1882329   -7.5819384    2.0962031 
H    -2.0011938   -8.9839985    0.1861823 
H    -3.1981085   -7.8900587   -1.7230143 
H    -3.5800236   -5.4933951   -1.7473835 

